6
Ethene
H          1.16103        0.06607        1.02388
C          0.65790       -0.00446        0.06398
H          1.33519       -0.08301       -0.78143
C         -0.65783        0.00446       -0.06385
H         -1.33549        0.08301        0.78127
H         -1.16080       -0.06606       -1.02386
