24

C          0.97966        0.08616        0.45970
C          0.50499       -0.96223       -0.57508
C         -0.78930       -0.48290       -1.27498
H          1.29099       -1.13187       -1.32108
H          0.32397       -1.92177       -0.07548
C         -1.88919       -0.25506       -0.21337
C         -1.35908        0.78239        0.75342
H         -2.81833        0.09193       -0.68089
H         -2.11753       -1.18665        0.31674
C         -0.13617        0.30512        1.51164
H          0.17153        1.04618        2.25899
H         -0.35777       -0.62649        2.04429
C          1.25096        1.42316       -0.27764
H          1.89464       -0.26135        0.95177
C         -0.50536        0.86028       -1.99024
H         -1.12013       -1.23182       -2.00288
C         -0.04332        1.91884       -0.96418
H          0.26621        0.71964       -2.75707
H         -1.41102        1.20494       -2.50549
H          0.13025        2.87812       -1.46226
C         -1.11327        2.07195        0.10483
H          1.61092        2.17395        0.43747
H          2.04260        1.28511       -1.02415
H         -1.09219        2.95640        0.73606
