16
Cubane
C          1.24547        0.53669       -0.07290
C          0.92392       -0.99514        0.02370
C         -0.12263       -0.70413        1.15482
C          0.19893        0.82772        1.05821
C          0.12265        0.70417       -1.15479
C         -0.92387        0.99519       -0.02369
C         -1.24542       -0.53666        0.07293
C         -0.19893       -0.82767       -1.05819
H          2.24307        0.96659       -0.13134
H          1.66379       -1.79241        0.04265
H         -0.22084       -1.26827        2.07974
H          0.35835        1.49072        1.90586
H          0.22084        1.26808       -2.07988
H         -1.66400        1.79222       -0.04265
H         -2.24302       -0.96648        0.13133
H         -0.35831       -1.49061       -1.90580
