12
cyclobutane.out
C         -0.93510       -0.03550        0.09670
C         -0.86880        1.50720       -0.00540
C          0.67660        1.43780       -0.05260
H         -1.33290        1.92390       -0.90500
H         -1.27330        2.03980        0.86120
C          0.61010       -0.10520        0.04900
H          1.12010        1.81540       -0.97910
H          1.18000        1.92780        0.78680
H          1.01550       -0.63620       -0.81850
H          1.07390       -0.52410        0.94800
H         -1.37940       -0.41180        1.02410
H         -1.43800       -0.52650       -0.74290
