18
Pentane-1-thiol
C          2.81008       -0.24908       -0.03670
C          1.54072        0.57230       -0.02666
C          0.30567       -0.31399       -0.00214
C         -0.96803        0.51796        0.00936
C         -2.19542       -0.37224        0.03301
S         -3.68587        0.68151        0.05114
H          2.88505       -0.89049        0.85155
H          2.86195       -0.90418       -0.91654
H          1.51125        1.23466       -0.91476
H          1.53519        1.25044        0.84994
H          0.33511       -0.97774        0.88549
H          0.31007       -0.99136       -0.87988
H         -0.99583        1.18099       -0.87944
H         -0.97127        1.19445        0.88842
H         -2.17525       -1.03310        0.91870
H         -2.20274       -1.04172       -0.84635
H         -4.60029       -0.25187        0.06818
H          3.69960        0.39344       -0.05333
