6
5-pcl5.out
P         -0.43200       -0.04090        0.00000
Cl        -0.43200        1.96930       -0.00000
Cl         1.31910       -1.03200        0.00000
Cl        -2.18310       -1.03190        0.00000
Cl        -0.43200       -0.05180        2.11930
Cl        -0.43200       -0.05180       -2.11930
