7

Fe        -0.56480       -0.17888        0.17143
Cl        -2.02799       -0.48345       -1.55265
Cl         0.89832        0.12565        1.89551
Cl         0.09932        1.80349       -0.74238
Cl        -1.22898       -2.16130        1.08524
Cl        -2.18474        0.90894        1.35402
Cl         1.05508       -1.26674       -1.01116
