20
Azepane
N          0.56580        1.35248       -0.61847
C          1.48173        0.59181        0.26850
C          1.47866       -0.90698       -0.01842
C          0.12780       -1.53065       -0.33432
C         -1.03817       -0.96001        0.45856
C         -1.64557        0.26638       -0.20545
C         -0.79980        1.52535       -0.06101
H          0.95768        2.25391       -0.78628
H          1.24100        0.76816        1.34098
H          2.50928        0.98125        0.12222
H          1.92477       -1.41539        0.86073
H          2.16523       -1.12461       -0.86113
H          0.19813       -2.62130       -0.14766
H         -0.08379       -1.43582       -1.41913
H         -0.72646       -0.72576        1.49593
H         -1.82390       -1.73577        0.55300
H         -2.64159        0.46813        0.23767
H         -1.83457        0.05584       -1.27783
H         -0.77308        1.83832        1.00703
H         -1.28313        2.35467       -0.61493
