10
Ethanamine
C          1.05926        0.42074       -0.09821
C         -0.10050       -0.55064       -0.00326
N         -1.39568        0.14783       -0.16123
H          1.05527        0.97654       -1.04538
H          1.04598        1.16067        0.71403
H         -0.03478       -1.12041        0.94937
H         -0.03770       -1.30329       -0.81430
H         -1.46826        0.88200        0.51226
H         -2.14036       -0.50081       -0.01682
H          2.01676       -0.11264       -0.03647
