27
2-Methyl-2-tert-butoxypropane
C          0.98237       -0.22531        0.77604
C          2.45287       -0.66900        0.65525
H          2.53505       -1.70959        0.31493
H          3.00889       -0.04371       -0.05577
H          2.95909       -0.59645        1.62665
C          0.26822       -1.16044        1.76017
H          0.16500       -2.17426        1.35194
H          0.82848       -1.23443        2.70109
H         -0.74268       -0.79664        2.00497
C          0.94491        1.20776        1.31316
H          1.38629        1.25491        2.31673
H          1.50889        1.89409        0.66721
H         -0.08510        1.59392        1.38150
O          0.50846       -0.37038       -0.57012
C         -0.78415        0.08108       -0.99798
C         -1.95470       -0.47039       -0.17989
H         -1.95419       -1.56871       -0.16671
H         -1.92003       -0.13011        0.86784
H         -2.91118       -0.14194       -0.60589
C         -0.88437        1.61004       -1.06967
H         -0.98356        2.05775       -0.06780
H          0.00234        2.05143       -1.54294
H         -1.76179        1.91414       -1.65462
C         -0.87199       -0.48496       -2.42826
H         -0.07717       -0.08510       -3.07155
H         -0.78594       -1.57960       -2.43809
H         -1.83401       -0.22409       -2.88819
