15
Ethoxyethane
H          2.90589        0.02935        1.57420
C          2.31341       -0.02637        0.65243
H          2.63439        0.79669        0.00059
H          2.57539       -0.96408        0.14510
C          0.83286        0.04942        0.97429
H          0.52366       -0.78291        1.63706
H          0.58396        0.99400        1.49721
O          0.13193       -0.02372       -0.25788
C         -1.27799        0.03522       -0.10392
H         -1.62493       -0.79723        0.53974
H         -1.56594        0.97964        0.39888
C         -1.88412       -0.05489       -1.49163
H         -1.55365        0.76854       -2.13823
H         -1.61605       -0.99234       -1.99627
H         -2.97882       -0.01131       -1.43159
