21
1-Propoxypropane
H          3.88658        0.25869        2.37305
C          3.39368        0.17815        1.39593
H          3.72726        1.03063        0.78919
H          3.77062       -0.73324        0.91282
C          1.88941        0.15136        1.54386
H          1.58482       -0.69656        2.18883
H          1.54147        1.06296        2.06893
C          1.21870        0.04154        0.17713
H          1.49150        0.89780       -0.47157
H          1.53373       -0.88167       -0.34902
O         -0.18279        0.02376        0.40134
C         -0.93615       -0.07723       -0.79734
H         -0.70774        0.77676       -1.46589
H         -0.66439       -1.00268       -1.34329
C         -2.41007       -0.08599       -0.40054
H         -2.61581       -0.92857        0.28901
H         -2.65865        0.83101        0.16962
C         -3.28870       -0.19073       -1.62625
H         -3.13128        0.65217       -2.31246
H         -3.09071       -1.11187       -2.19051
H         -4.35148       -0.19629       -1.35283
