12
Methoxyethane
H          2.35393        0.10791        1.13629
C          1.78018        0.06085        0.20225
H          2.05636        0.93496       -0.40192
H          2.11059       -0.83102       -0.34614
C          0.29371        0.02440        0.49974
H          0.02783       -0.85781        1.11452
H         -0.02682        0.92393        1.06103
O         -0.38579       -0.03389       -0.74928
C         -1.78216       -0.07385       -0.62819
H         -2.12446       -0.96308       -0.08489
H         -2.18026        0.82297       -0.13795
H         -2.12311       -0.11536       -1.66545
