38
Porphyrin
  C      3.9068      1.9346     -0.0176
  C      4.3387      0.6468     -0.0165
  C      3.1509     -0.2215     -0.0079
  C      2.4328      1.9099     -0.0074
  N      2.0021      0.6454     -0.0013
  C      1.6012      3.0802     -0.0125
  C      0.2471      3.0841      0.0332
  N     -0.6138      1.9540      0.1857
  C     -1.9663      2.3890      0.0325
  C     -0.6304      4.2656     -0.0198
  C     -1.9218      3.8600     -0.0202
  C     -3.0750      1.6117     -0.0141
  C     -3.0880      0.1761     -0.0097
  N     -2.0117     -0.6151     -0.0029
  C     -3.9293     -1.9499     -0.0204
  C     -4.3113     -0.6464     -0.0213
  C     -0.2263     -3.0808     -0.0048
  N      0.6200     -1.9731      0.0098
  C      1.9475     -2.3983     -0.0037
  C      1.9303     -3.8167     -0.0224
  C      0.5984     -4.2348     -0.0230
  C      3.1170     -1.5732     -0.0055
  C     -1.6576     -3.0725     -0.0078
  C     -2.4584     -1.9831     -0.0105
  H      4.5005      2.8459     -0.0230
  H      5.3620      0.2779     -0.0215
  H      2.1262      4.0420     -0.0676
  H     -0.3294      1.0483     -0.1141
  H     -0.2495      5.2852     -0.0534
  H     -2.8174      4.4787     -0.0541
  H     -4.0556      2.1006     -0.0697
  H     -4.5581     -2.8376     -0.0264
  H     -5.3195     -0.2383     -0.0274
  H      0.3226     -1.0265      0.0282
  H      2.8116     -4.4536     -0.0349
  H      0.2391     -5.2611     -0.0362
  H      4.0702     -2.1201     -0.0086
  H     -2.1269     -4.0662     -0.0118
