8
2,2,2-Trichloroacetic acid
C          0.80671       -0.38214       -0.01659
C         -0.40388        0.50783        0.14414
O         -0.45541        1.62393        0.61709
Cl         2.25891        0.40383        0.57273
Cl         0.58089       -1.87619        0.88307
O         -1.55025       -0.04645       -0.30650
Cl         1.04282       -0.78331       -1.71225
H         -2.27979        0.55249       -0.18169
