8
Acetic acid
H          1.46492       -0.12772        0.74877
C          0.93368       -0.19417       -0.20982
H          1.26878        0.64279       -0.83656
H          1.23269       -1.12872       -0.70107
C         -0.54772       -0.14261       -0.00129
O         -1.39397       -0.96737       -0.29610
O         -1.00604        0.98165        0.60055
H         -1.95234        0.93616        0.69551
