14
Butanoic acid
H          2.19662       -0.77182        1.72739
C          1.74922       -0.77261        0.72530
H          2.44408       -0.24925        0.05489
H          1.69643       -1.81720        0.39041
C          0.38507       -0.12027        0.73807
H         -0.28241       -0.64932        1.44691
H          0.46509        0.91752        1.11723
C         -0.22991       -0.11809       -0.65432
H          0.43085        0.41909       -1.36477
H         -0.31498       -1.15371       -1.04024
C         -1.60441        0.49996       -0.62801
O         -2.63916        0.05260       -0.16715
O         -1.70050        1.72232       -1.20234
H         -2.59599        2.04077       -1.14337
