21
2-Hydroxypropane-1,2,3-tricarboxylic acid
H          2.03894        0.21537        0.99180
C          1.62034        0.33739       -0.02905
H          2.00779        1.31076       -0.39774
C          0.07572        0.38484        0.06232
O         -0.54882        0.34986       -1.20751
H          0.00759        0.81321       -1.82059
C         -0.30868        1.70382        0.79439
O          0.31482        2.22716        1.69419
O         -1.39387        2.42537        0.46517
H         -1.95057        1.94967       -0.14076
C         -0.44376       -0.82294        0.87348
H         -0.30302       -0.62556        1.95633
H          0.17559       -1.71671        0.64419
C         -1.88872       -1.18330        0.62380
O         -2.33763       -2.22873        0.19601
O         -2.80283       -0.23878        0.95500
H         -3.68164       -0.56194        0.78191
C          2.13274       -0.77744       -0.90984
O          2.47359       -1.90076       -0.59383
O          2.24564       -0.45753       -2.22122
H          2.56678       -1.20375       -2.71804
