12
(R)-2-Hydroxypropanoic acid
H          2.08255       -0.19824        0.34047
C          1.30268       -0.86476       -0.04887
H          1.72889       -1.42653       -0.89035
H          1.05961       -1.58901        0.73996
C          0.08062       -0.06771       -0.48995
H          0.36342        0.64569       -1.30407
C         -0.49173        0.76646        0.66410
O         -0.04119        0.97890        1.77228
O         -1.66493        1.38433        0.38281
H         -1.96778        1.87267        1.14219
O         -0.86716       -0.99733       -0.96682
H         -1.58497       -0.50448       -1.34175
