15
(R)-2-Hydroxybutanedioic acid
O          1.27406       -0.24177        2.26746
C          0.66529        0.64815        1.70087
O          0.41625        1.75678        2.43607
H          0.75774        1.64662        3.31813
C          0.17646        0.71509        0.27585
H         -0.64275        1.45848        0.18049
H          1.01355        1.09724       -0.34323
C         -0.28520       -0.65948       -0.23302
H          0.43815       -1.45703        0.07568
O         -1.54108       -0.90143        0.36104
H         -1.89946       -1.68963       -0.02614
C         -0.37548       -0.68681       -1.76253
O         -1.29767       -1.08265       -2.45129
O          0.72172       -0.26588       -2.43018
H          0.57841       -0.33768       -3.36920
