14
Isobutyric acid
H          2.23484       -0.14060        0.48029
C          1.52488       -0.21108       -0.35414
H          1.67963        0.66636       -0.99644
H          1.78818       -1.09931       -0.94249
C          0.09783       -0.28767        0.15789
H          0.00303       -1.20067        0.79773
C         -0.24288        0.93923        0.98930
H          0.43849        1.03214        1.84525
H         -0.15760        1.86279        0.40118
H         -1.26568        0.89134        1.38603
C         -0.89816       -0.41293       -0.98863
O         -0.74035       -0.16392       -2.16394
O         -2.16069       -0.85433       -0.76783
H         -2.30154       -1.02133        0.15579
