20
(2R)-2-[(1S)-1,2-Dihydroxyethyl]-4,5-dihydroxyfuran-3-one
H          0.36174       -1.63972       -0.44595
C          0.00005       -0.61002       -0.22440
O          0.25428       -0.42988        1.19614
C         -0.95643       -0.19123        1.79381
O         -0.72565       -0.02495        3.09717
H         -1.55948        0.17293        3.51013
C         -2.03891       -0.23768        0.95914
C         -1.53618       -0.50624       -0.40156
O         -2.15395       -0.62386       -1.43544
O         -3.33698       -0.11735        1.37347
H         -3.79264        0.29199        0.64785
C          0.77533        0.41517       -1.07603
H          0.50220        0.22435       -2.14518
O          0.34138        1.70599       -0.70087
H          0.74581        2.31081       -1.30829
C          2.31101        0.28040       -0.89231
H          2.83822        1.14403       -1.33750
H          2.58951        0.23453        0.17798
O          2.83919       -0.80165       -1.60572
H          2.54151       -1.59762       -1.18244
