19
(2R)-2-Aminopentanedioic acid
C          2.01077       -0.45027       -1.25050
C          0.67292       -0.82806       -0.61880
N         -0.27276       -1.41838       -1.59407
C          0.07104        0.42050        0.04165
H          0.85202        0.93160        0.64096
H         -0.24357        1.15681       -0.72637
C         -1.10535        0.06031        0.93500
H         -1.89883       -0.45040        0.35065
H         -0.79340       -0.66382        1.71576
C         -1.69897        1.26984        1.60737
O         -1.36909        2.44092        1.55173
O         -2.76747        1.00327        2.39788
H         -3.09131        1.80981        2.78691
O          3.05298       -0.36699       -0.39465
O          2.25936       -0.22842       -2.42193
H          0.85426       -1.61222        0.15996
H          0.14197       -2.21615       -2.02603
H         -0.51641       -0.74765       -2.29270
H          3.84185       -0.11068       -0.86282
