22
(2R,3R)-2-Amino-3-methylpentanoic acid
H          1.11216        0.40821       -1.57515
C          0.68486       -0.46782       -1.02206
N          1.84513       -1.28131       -0.57800
H          1.53568       -2.13905       -0.17068
H          2.34313       -0.75320        0.11494
C         -0.19413        0.05706        0.13635
H         -0.57923       -0.81459        0.72296
C         -1.37996        0.84975       -0.38974
H         -1.90605        1.33669        0.44906
H         -2.10004        0.20941       -0.91416
H         -1.06798        1.63984       -1.08596
C          0.63862        0.94300        1.07011
H          1.59999        0.44052        1.31620
H          0.91958        1.87763        0.54403
C         -0.12096        1.26740        2.33694
H          0.40365        2.01786        2.94029
H         -0.26599        0.37885        2.96502
H         -1.12135        1.66452        2.09370
C         -0.13965       -1.28585       -2.00852
O         -0.37703       -1.03544       -3.17510
O         -0.68060       -2.43438       -1.53550
H         -1.14982       -2.87910       -2.23473
