22
(2R)-2-Amino-4-methylpentanoic acid
C          2.31871       -1.00120       -0.61597
C          0.81424       -0.72689       -0.67974
C          0.43639        0.55768        0.06696
H          1.04063        0.64164        0.99418
H          0.69944        1.45122       -0.53608
C         -1.04933        0.59603        0.43529
C         -1.40099        1.94897        1.03134
N          0.39834       -0.74745       -2.10590
H         -0.81478        2.15731        1.93680
H         -2.46211        1.99486        1.30889
H         -1.20945        2.76385        0.32094
C         -1.39231       -0.51849        1.41113
O          3.15368       -0.43599        0.05863
O          2.88097       -2.00044       -1.32947
H          0.29791       -1.58849       -0.16694
H          0.73731        0.07008       -2.56943
H         -0.59862       -0.76481       -2.15865
H          2.24315       -2.40877       -1.90266
H         -1.65871        0.45468       -0.49167
H         -2.47388       -0.58581        1.58072
H         -0.91251       -0.36540        2.38705
H         -1.04808       -1.49259        1.02458
