23
(2R)-2-Amino-3-phenylpropanoic acid
C          2.67576       -0.84638       -1.48122
C          1.20498       -0.62531       -1.11270
N          0.44399       -0.40616       -2.37296
C          0.97847        0.57163       -0.17439
H          1.80007        0.62545        0.57431
H          1.02608        1.52809       -0.73581
C         -0.32989        0.45113        0.53821
C         -1.43377        1.19307        0.11626
H         -1.34494        1.86726       -0.74409
C         -2.64677        1.07972        0.78723
H         -3.51030        1.66468        0.45363
C         -2.76442        0.22693        1.87928
H         -3.72008        0.13996        2.40661
C         -1.66582       -0.51477        2.30222
H         -1.75641       -1.18615        3.16253
C         -0.45166       -0.40417        1.63524
H          0.41345       -0.98747        1.97095
O          3.09706       -1.67504       -2.26135
O          3.69678       -0.15332       -0.93218
H          0.88095       -1.55712       -0.57415
H         -0.52201       -0.29123       -2.14755
H          0.56160       -1.18650       -2.98301
H          3.36688        0.48569       -0.30707
