14
(2R)-2-Amino-3-hydroxypropanoic acid
H          1.16616        0.31646       -0.71985
C          0.24060       -0.04004       -0.19962
N          0.62473       -1.23447        0.59394
H          1.40749       -1.00793        1.17013
H         -0.14016       -1.51333        1.17296
C         -0.34322        1.10967        0.65186
O          0.58952        1.59240        1.57904
C         -0.74269       -0.46043       -1.29303
O         -1.71789        0.14808       -1.68155
O         -0.57491       -1.59824       -1.99788
H          0.15981       -2.10041       -1.66528
H         -1.18082        0.76828        1.28743
H         -0.72263        1.92083        0.00096
H          1.23400        2.09915        1.10088
