27
(2R)-2-Amino-3-(1H-indol-3-yl)propanoic acid
N          2.46074       -0.91340       -0.94992
C          1.14223       -0.79726       -1.62263
C          1.27144       -1.33667       -3.04863
O          2.31018       -0.99263       -3.84000
O          0.50183       -2.06187       -3.64353
C         -0.00305       -1.48673       -0.86667
H         -0.93306       -1.42085       -1.46760
H          0.20373       -2.56964       -0.74577
C         -0.23581       -0.86137        0.45251
C         -0.84006        0.42916        0.67969
C         -0.90690        0.62426        2.08459
C         -1.43986        1.79505        2.64265
H         -1.48284        1.93782        3.72656
C         -1.90680        2.75518        1.76877
H         -2.32916        3.68600        2.16182
C         -1.85801        2.56739        0.37326
H         -2.25026        3.35524       -0.27835
C         -1.33328        1.41803       -0.18130
H         -1.30314        1.26621       -1.26545
N         -0.41826       -0.55097        2.69822
C          0.04444       -1.41826        1.68526
H          0.49117       -2.38922        1.90459
H         -0.12002       -0.59457        3.63835
H          2.64774       -1.87313       -0.74382
H          2.43567       -0.39539       -0.09663
H          0.91022        0.29645       -1.70551
H          2.94112       -0.46881       -3.36045
