25
(S)-2-Amino-3-(4-nitrophenyl)propanoic acid
C          1.51769       -0.72680        0.16671
C          1.66809       -2.09180       -0.04239
C          0.56279       -2.94290        0.06961
C         -0.69241       -2.41110        0.39061
C         -0.83411       -1.04630        0.59611
C          0.26779       -0.19480        0.48511
N          0.72009       -4.41370       -0.15429
O          1.81429       -4.86300       -0.43369
O         -0.24871       -5.14080       -0.05259
C          0.10319        1.27240        0.71901
C         -0.60061        1.95570       -0.46559
C         -1.05901        3.34400       -0.02279
O         -0.51451        4.41710       -0.20909
O         -2.22671        3.37680        0.65631
N          0.28359        1.99580       -1.65149
H          2.38759       -0.06530        0.07201
H          2.66009       -2.49120       -0.29699
H         -1.57161       -3.06450        0.48271
H         -1.81871       -0.63310        0.84751
H          1.08639        1.74730        0.91791
H         -0.49611        1.42240        1.64051
H         -1.49901        1.35270       -0.75669
H         -2.44081        4.27240        0.90001
H          1.12199        2.49770       -1.44569
H         -0.19121        2.43110       -2.41279
