13
(2S)-2-Aminopropanoic acid
H          2.02430       -0.29465        1.11108
N          1.63738       -0.34486        0.19249
H          1.96123        0.43081       -0.34692
C          0.15745       -0.32316        0.29187
H         -0.12768       -1.24522        0.85953
C         -0.40390        0.90235        1.00653
H         -0.02677        0.96894        2.03623
H         -0.13965        1.83909        0.49636
H         -1.49915        0.85866        1.06428
C         -0.42196       -0.38879       -1.11522
O         -0.19648        0.32894       -2.07202
O         -1.32711       -1.37417       -1.31209
H         -1.63765       -1.35792       -2.21212
