26
(2S)-2-Amino-5-(diaminomethylideneamino)pentanoic acid
N          1.15458       -2.98762       -0.98674
C          1.63064       -1.61499       -1.28182
C          3.15496       -1.64314       -1.29137
O          3.92035       -1.97386       -0.40458
O          3.72388       -1.22616       -2.44492
C          1.16533       -0.53858       -0.28894
H          1.76659        0.38078       -0.44121
H          1.37217       -0.85777        0.75379
C         -0.31001       -0.20816       -0.45552
H         -0.93065       -1.11167       -0.28586
H         -0.51114        0.09957       -1.50278
C         -0.71664        0.89839        0.51351
H         -0.11801        1.81454        0.31926
H         -0.48671        0.59407        1.55494
N         -2.17964        1.15558        0.40942
H         -2.42966        1.33088       -0.54282
C         -2.67842        2.20345        1.28348
N         -3.18829        3.25829        0.72405
H         -3.60921        3.93342        1.31206
N         -2.54503        1.99219        2.69906
H         -2.42606        1.03201        2.93864
H         -3.30251        2.39516        3.20679
H          0.15676       -3.00230       -1.01842
H          1.46290       -3.27525       -0.08136
H          1.25159       -1.36370       -2.30576
H          4.67222       -1.28512       -2.38288
