14
(2R)-2-Amino-3-sulfanylpropanoic acid
H         -0.32935       -1.09294        0.81728
C          0.04162       -0.38325        0.03261
N          1.44097       -0.77115       -0.25872
H          1.81111       -0.20738       -0.99565
H          1.47410       -1.73200       -0.52424
C         -0.00650        1.04667        0.58032
H          0.60358        1.72602       -0.04573
C         -0.87656       -0.48418       -1.19153
O         -0.54217       -0.55876       -2.35480
O         -2.22104       -0.51388       -1.07053
H         -2.47877       -0.44788       -0.15917
S          0.44323        1.20231        2.33301
H         -1.04105        1.44231        0.52824
H          1.68082        0.77411        2.30890
