22
(2S)-2-Amino-4-methylpentanoic acid
H          0.49334       -1.56334       -0.28224
C          0.67273       -0.65858       -0.93074
N          2.13797       -0.43463       -0.94970
H          2.45523       -0.27331       -0.01676
H          2.36065        0.35666       -1.51717
C         -0.15543        0.50675       -0.36607
H          0.19090        1.47164       -0.79048
H         -1.21065        0.40171       -0.69039
C         -0.10787        0.56293        1.16269
H          0.96038        0.60965        1.49038
C         -0.74286       -0.67850        1.76882
H         -0.59359       -0.71647        2.85486
H         -0.30243       -1.59117        1.33311
H         -1.82429       -0.71468        1.58167
C         -0.81186        1.81525        1.65840
H         -0.78841        1.87411        2.75431
H         -1.86630        1.83568        1.35105
H         -0.33790        2.72533        1.26792
C          0.22190       -0.94021       -2.35761
O          0.35834       -0.25641       -3.35541
O         -0.43559       -2.11018       -2.52582
H         -0.67426       -2.22222       -3.44084
