17
(2S)-Pyrrolidine-2-carboxylic acid
H         -0.13097       -1.07655        1.63572
C         -0.15726       -0.63902        0.60818
C         -1.20401       -1.38526       -0.20437
O         -1.15189       -1.78305       -1.35456
O         -2.35852       -1.64177        0.45250
H         -2.96245       -2.10328       -0.12133
N          1.22788       -0.77675        0.06680
C          1.69088        0.54717       -0.43489
H          2.56627        0.82982        0.18087
H          2.04876        0.49358       -1.48090
C          0.54048        1.53722       -0.27264
H          0.08541        1.78163       -1.25139
H          0.88732        2.50157        0.14048
C         -0.47304        0.86447        0.64762
H         -1.51350        1.08299        0.34489
H         -0.38097        1.24444        1.68280
H          1.28559       -1.47722       -0.63981
