17
(2S,3R)-2-Amino-3-hydroxybutanoic acid
C         -0.23166        0.05944       -2.06858
C         -0.26959       -0.56356       -0.67519
C         -0.03030        0.52107        0.41757
N          1.35090        1.05159        0.36929
O          0.59806       -1.66274       -0.55003
C         -0.40200       -0.02541        1.79139
O          0.32753       -0.25061        2.74045
O         -1.71902       -0.25929        1.98869
H         -0.40531       -0.69878       -2.84369
H          0.73328        0.53771       -2.28604
H         -1.01078        0.82476       -2.17625
H         -1.26137       -1.04186       -0.49482
H         -0.71231        1.37990        0.19153
H          2.00671        0.34158        0.62185
H          1.43530        1.81689        1.00397
H          1.44814       -1.40746       -0.88797
H         -1.85758       -0.62323        2.85783
