27
(2S)-2-Amino-3-(1H-indol-3-yl)propanoic acid
N         -1.27608        1.11446       -1.76757
C          0.18141        1.08542       -2.03412
C          0.38631        0.92409       -3.53477
O         -0.00229        0.03740       -4.27294
O          1.11962        1.89939       -4.11877
C          0.94346       -0.03869       -1.30793
H          2.00619       -0.02314       -1.62063
H          0.55031       -1.03304       -1.60512
C          0.86063        0.11213        0.15974
C          1.63299        0.94651        0.94359
N          1.20952        0.84026        2.28635
H          1.76227        1.11556        3.05696
C          0.22227       -0.16941        2.35815
C         -0.03683       -0.60653        1.03229
C         -1.02119       -1.57620        0.80263
H         -1.22836       -1.91929       -0.21676
C         -1.70944       -2.08136        1.88684
H         -2.48176       -2.84235        1.73358
C         -1.44198       -1.64128        3.19800
H         -2.01313       -2.07284        4.02681
C         -0.48091       -0.68509        3.45575
H         -0.27210       -0.34299        4.47389
H          2.42469        1.62867        0.63004
H         -1.41976        1.27419       -0.79209
H         -1.68757        0.23963       -2.02087
H          0.58276        2.07524       -1.69809
H          1.18896        1.73927       -5.05496
