19
(2S)-2-Amino-3-methylbutanoic acid
C          0.10981       -0.80496       -0.21670
N          1.38942       -1.55318       -0.25729
C          0.22084        0.65678        0.27753
C         -1.15314        1.30875        0.30873
C          0.84082        0.72115        1.66535
C         -0.45346       -0.83222       -1.63451
O          0.01067       -0.35291       -2.65309
O         -1.62918       -1.48669       -1.77039
H         -0.57061       -1.36789        0.47291
H          1.73711       -1.66307        0.67222
H          2.06100       -1.05941       -0.80752
H          0.87029        1.22805       -0.43208
H         -1.62702        1.30255       -0.68190
H         -1.08625        2.35593        0.63213
H         -1.83108        0.79287        1.00233
H          0.81774        1.74777        2.05569
H          1.89241        0.40405        1.66739
H          0.30114        0.08735        2.38239
H         -1.90051       -1.48492       -2.68318
