15
7H-Purin-6-amine
N         -2.23779        0.00785        0.01865
C         -0.96699        0.60021        0.02078
C         -0.03198       -0.46266        0.01902
N         -0.73875       -1.68003        0.00898
C         -2.04668       -1.39242        0.01036
C          1.34596       -0.12689        0.02369
N          1.68553        1.19389        0.00020
C          0.71188        2.16249        0.00602
N         -0.61335        1.93098        0.01823
H          1.05401        3.20573       -0.00241
N          2.37521       -1.06038        0.15063
H         -3.10601        0.47873        0.02194
H         -2.84828       -2.13654        0.00631
H          2.14134       -1.97021       -0.16982
H          3.27589       -0.75075       -0.13258
