13
4-Amino-3H-pyrimidin-2-one
C         -0.66974        0.90047       -0.02561
C          0.57978        1.44243       -0.00284
N          1.69907        0.62004        0.00886
C          1.55382       -0.81901        0.00574
N          0.24488       -1.36317       -0.01009
C         -0.80169       -0.53742       -0.04300
O          2.57323       -1.48691        0.02295
N         -2.06291       -1.13840       -0.18941
H         -2.10720       -2.10715        0.03216
H         -2.80162       -0.60801        0.21108
H          0.74621        2.52767        0.00673
H         -1.55894        1.53856       -0.04158
H          2.60512        1.03091        0.02503
