15
N,N-Dimethylacetamide
C          0.95266        1.67852        0.18420
N          0.35071        0.33202        0.31226
C          1.18714       -0.74616       -0.25896
C         -1.07553        0.21695        0.14660
C         -1.69084       -1.15569        0.05618
O         -1.74389        1.23932        0.15652
H          0.40179        2.39642        0.80616
H          0.95254        2.04618       -0.85214
H          1.99053        1.64459        0.54170
H          1.13883       -0.78816       -1.35728
H          0.86865       -1.71895        0.13953
H          2.23501       -0.59191        0.03209
H         -1.37703       -1.67078       -0.86222
H         -2.78788       -1.10006        0.04411
H         -1.40268       -1.78228        0.91125
