23
alpha-L-rhamnopyranose.out
C         -0.61610        1.96980       -0.43230
O         -1.33410        0.91140       -1.04310
C         -0.88640       -0.44510       -0.76930
C         -1.82130       -1.30520       -1.59870
C          0.59580       -0.53870       -1.20170
C          1.44340        0.42400       -0.34530
O          2.77910        0.49950       -0.86650
C          0.92730        1.87410       -0.45140
O          1.30300        2.46700       -1.69760
O          1.13210       -1.83200       -0.88140
O         -0.94720        1.97520        0.95570
H         -0.99560       -0.63350        0.32170
H          0.72440       -0.33370       -2.28700
H          1.49330        0.07600        0.71240
H          1.35920        2.50110        0.36760
H         -1.00890        2.87030       -0.95630
H         -1.91500        1.89350        1.08430
H          2.20590        2.14060       -1.96080
H          3.14670       -0.41250       -0.96000
H          0.76260       -2.51190       -1.48010
H         -1.77670       -1.04430       -2.66520
H         -1.60280       -2.37200       -1.48680
H         -2.86610       -1.14450       -1.29250
