20
alpha-D-arabinopyranose.out
C          1.38990        0.05530        0.13800
C          0.17560       -0.78890        0.60380
O          0.51420       -1.47850        1.81390
C         -0.99950        0.12000        1.00130
C         -1.35390        1.10790       -0.13380
C         -0.11370        1.78440       -0.73680
O          1.01360        0.91780       -0.94580
O         -1.99430        0.42480       -1.21490
O         -2.19850       -0.65370        1.15520
O          2.35920       -0.78550       -0.44970
H          0.22200        2.63570       -0.11870
H         -0.32470        2.11350       -1.77950
H          1.90440        0.60520        0.94910
H         -0.12170       -1.52630       -0.17520
H         -0.79240        0.63660        1.96620
H         -2.07570        1.87300        0.24440
H          2.17470       -0.89960       -1.41710
H          1.28940       -2.06720        1.65600
H         -2.62860       -0.25010       -0.85290
H         -2.01700       -1.43100        1.73700
