20
alpha-L-arabinopyranose.out
C          1.46290        0.89500       -0.16900
O          0.42170        1.65150        0.47260
C         -0.86940        1.03120        0.55530
C         -1.36950        0.67590       -0.85250
C         -0.39310       -0.28050       -1.57240
C          1.06850        0.19610       -1.49780
O          1.19910        1.09820       -2.60060
O         -0.39670       -1.57090       -0.94960
O         -2.58310       -0.05830       -0.61100
O          2.39940        1.91430       -0.50810
H         -0.81340        0.13840        1.20520
H         -1.48420        1.81320        1.03930
H          1.94340        0.22720        0.57190
H          1.75350       -0.67020       -1.67840
H         -0.68370       -0.42570       -2.64070
H         -1.56800        1.58090       -1.46430
H          1.99950        2.80620       -0.32240
H          1.98410        1.69540       -2.45030
H         -1.28230       -1.74110       -0.53490
H         -3.15620       -0.04520       -1.40590
