24
alpha-D-glucopyranose.out
C          1.64520        1.65120        0.60690
C          1.87670        0.43560        1.53520
C          0.83790       -0.66460        1.23280
O          1.06410       -1.64930        2.24930
C         -0.58070       -0.07060        1.37060
C         -0.73640        1.18780        0.48280
C         -2.03430        1.95320        0.78530
O         -3.14730        1.09820        0.48540
O          0.30660        2.14760        0.77650
O         -1.45770       -1.09150        0.88210
O          3.21190       -0.00100        1.29380
O          1.77110        1.20550       -0.72760
H         -0.66130        0.90640       -0.59280
H          2.27680        2.53270        0.83270
H          1.81330        0.75210        2.60570
H          0.99360       -1.12970        0.23180
H         -0.82530        0.13400        2.43680
H          1.76790        1.95750       -1.35780
H          3.31110       -0.93430        1.61030
H         -2.15530        2.17210        1.86410
H         -2.09650        2.89660        0.21670
H         -2.39810       -0.75560        0.91280
H          0.40470       -2.37750        2.15300
H         -3.29730        1.05590       -0.48470
