20
alpha-L-lyxopyranose.out
C          1.15420        0.56110        0.43200
O          0.03850        1.07390        1.18760
C         -1.04290        1.57870        0.37810
C         -1.63210        0.46650       -0.50020
C         -0.53950       -0.29840       -1.28700
O         -0.16330        0.60560       -2.33130
C          0.68880       -0.64970       -0.41790
O          1.69650       -0.96530       -1.38800
O         -2.38120       -0.46730        0.27400
O          2.05370        0.13210        1.43160
H         -0.68020        2.42710       -0.23150
H         -1.76260        1.93270        1.14190
H          1.66360        1.35420       -0.14950
H          0.50430       -1.54010        0.22020
H         -0.95860       -1.22160       -1.75110
H         -2.38930        0.87560       -1.21580
H          1.57930       -0.02490        2.28520
H          2.54840       -1.16770       -0.93620
H          0.66260        0.27560       -2.77270
H         -1.89010       -0.71100        1.09230
