23
alpha-D-rhamnopyranose.out
C         -0.61600        1.96930        0.43360
O         -1.33410        0.91070        1.04390
C         -0.88650       -0.44570        0.76920
C          0.59580       -0.53910        1.20200
O          1.13190       -1.83250        0.88150
C          1.44360        0.42370        0.34590
C          0.92730        1.87380        0.45080
O          1.30480        2.47000        1.69500
O          2.77920        0.49940        0.86750
C         -1.82250       -1.30640        1.59710
O         -0.94790        1.97590       -0.95420
H         -0.99520       -0.63350       -0.32200
H          0.72440       -0.33420        2.28720
H          1.49450        0.07480       -0.71150
H          1.35730        2.50020       -0.36990
H         -1.00760        2.86990        0.95830
H         -1.91640        1.89820       -1.08250
H          2.20780        2.14450        1.95830
H          3.14720       -0.41210        0.96000
H          0.76420       -2.51230        1.48310
H         -1.78150       -1.04480        2.66370
H         -2.86680       -1.14700        1.28820
H         -1.60230       -2.37300        1.48640
