24
alpha-D-galactopyranose.out
C          1.62710        0.01710        0.77940
C          1.82970       -0.74300       -0.55800
C          0.78040       -0.31090       -1.61420
O          0.77600       -1.21400       -2.70720
C         -0.64710       -0.25540       -1.01400
O         -1.10590       -1.60220       -0.81870
C         -0.69750        0.54980        0.29410
C         -2.02260        0.39190        1.06970
O         -3.11320        0.16070        0.18440
O          0.27800        0.01490        1.23100
O          3.15600       -0.50530       -0.99490
O          2.01040        1.35630        0.49360
H         -0.44320        1.61650        0.10440
H          2.18600       -0.39920        1.64220
H          1.81170       -1.84690       -0.40240
H          1.07360        0.66000       -2.07920
H         -1.37290        0.14090       -1.76770
H          1.98170        1.91930        1.29600
H          3.30520        0.46420       -1.13850
H         -1.94520       -0.42650        1.81200
H         -2.30410        1.32920        1.58660
H         -0.70910       -1.97950        0.00260
H          0.28160       -2.04210       -2.47120
H         -3.03530       -0.73930       -0.22940
