24
alpha-D-idopyranose.out
C          1.76130        0.29040        0.83770
C          2.06540        0.08240       -0.66030
O          3.25750       -0.71260       -0.64850
C          0.92930       -0.68630       -1.36150
C         -0.44970       -0.08480       -1.01520
O         -1.36540       -1.01390       -1.60900
C         -0.65740        0.06730        0.51300
C         -1.70050       -0.90530        1.09150
O         -3.00700       -0.46450        0.70480
O          0.52860       -0.27540        1.26950
O          1.19310       -0.49830       -2.75870
O          1.67640        1.69910        1.00570
H         -0.90410        1.12500        0.75640
H          2.50360       -0.18220        1.51960
H          2.27570        1.05180       -1.17600
H          0.95730       -1.77660       -1.13060
H         -0.58940        0.89700       -1.52660
H          1.51130        1.93690        1.94190
H          3.52270       -0.91750       -1.57790
H         -1.62220       -1.91560        0.63770
H         -1.61270       -0.98570        2.18810
H         -2.29870       -0.80210       -1.34440
H          0.47190       -0.91940       -3.28720
H         -3.28730        0.30770        1.23770
