20
alpha-L-xylopyranose.out
C          1.19960        0.82640        0.07080
O          0.10160        1.54160        0.66430
C         -1.04070        1.70980       -0.18510
C         -1.58870        0.40000       -0.76570
C         -0.58980       -0.76780       -0.91230
O         -0.44980       -0.87830       -2.34150
C          0.81990       -0.62690       -0.28920
O          0.86550       -1.49310        0.83890
O         -2.62880        0.02350        0.15220
O          2.13120        0.77330        1.13740
H         -0.77760        2.42380       -0.98630
H         -1.77850        2.16160        0.51630
H          1.62940        1.40190       -0.77200
H          1.58770       -1.05810       -0.97940
H         -1.04730       -1.70520       -0.50590
H         -2.05550        0.59260       -1.76760
H          1.85780        1.40350        1.85420
H          0.71550       -0.98300        1.67290
H         -0.03190       -1.72870       -2.58910
H         -3.15370       -0.72390       -0.20210
