20
alpha-L-ribopyranose.out
C          1.16760        1.05360        0.00830
O          0.05850        1.77540       -0.57730
C         -1.05530        0.97830       -1.00480
C         -1.64160        0.17340        0.17440
C         -0.51730       -0.73390        0.74710
C          0.70560        0.11400        1.15760
O          0.34890        0.99370        2.23390
O         -0.98760       -1.31200        1.97060
O         -2.15720        1.05750        1.15180
O          1.99100        2.07050        0.49680
H         -0.75180        0.34220       -1.85130
H         -1.76630        1.75570       -1.35240
H          1.74600        0.54300       -0.78640
H          1.54710       -0.52200        1.51210
H         -0.24000       -1.52540        0.02170
H         -2.53240       -0.42610       -0.11770
H          1.51170        2.60100        1.19300
H         -0.19560        0.48620        2.89940
H         -1.04760       -2.28390        1.90080
H         -1.43120        1.67640        1.46240
