24
alpha-D-tagatopyranose.out
O         -0.95560       -0.71490        1.68960
C         -0.60700        0.18360        0.65850
O          0.59540        0.80760        1.16510
C          1.30400        1.63670        0.22510
C          1.74740        0.82400       -0.99940
O          2.77670       -0.10190       -0.66250
C          0.56800        0.03870       -1.62400
C         -0.25450       -0.71410       -0.55600
O         -1.45260       -1.09410       -1.24480
O         -0.23900        1.03570       -2.26120
C         -1.73330        1.22360        0.45390
O         -2.79730        0.92250        1.35740
H          0.67330        2.49510       -0.06850
H          2.16570        1.98280        0.82990
H          0.28070       -1.62410       -0.19710
H          0.93210       -0.67650       -2.39790
H          2.22220        1.47510       -1.77410
H         -2.09210        1.23890       -0.59180
H         -1.42080        2.24150        0.75850
H         -1.22000       -0.21160        2.50950
H         -1.92280       -1.78960       -0.73150
H         -1.04440        0.60600       -2.64590
H          2.57100       -0.54570        0.19590
H         -3.22610        0.07430        1.10170
