24
alpha-D-mannopyranose.out
C          1.73760       -0.31100        1.23150
C          2.08990       -0.82050       -0.18380
O          2.61180       -2.13380        0.03490
C          0.88260       -0.84490       -1.14330
O          1.27470       -1.79480       -2.14660
C         -0.40730       -1.32630       -0.44470
C         -0.66600       -0.48400        0.82230
C         -1.85120       -0.99180        1.65680
O         -3.00430       -0.68500        0.84480
O          0.44660       -0.64160        1.73300
O         -1.43030       -1.11350       -1.42190
O          1.80290        1.10710        1.13100
H         -0.78260        0.59470        0.56900
H          2.40910       -0.70940        2.02560
H          2.91520       -0.19970       -0.61470
H          0.72320        0.14280       -1.63470
H         -0.35930       -2.41590       -0.21960
H          1.45610        1.53220        1.94460
H          2.46860       -2.69000       -0.78000
H         -1.80150       -2.07820        1.84580
H         -1.92330       -0.44810        2.61710
H         -2.32300       -1.04550       -0.98310
H          0.50720       -1.97930       -2.74140
H         -3.81260       -1.05100        1.25690
