23
alpha-D-fucopyranose.out
C          1.06240        0.15080        0.89620
C          1.36270       -0.53740       -0.46190
C          0.27190       -0.23100       -1.52060
O          0.36800       -1.14500       -2.60200
C         -1.15320       -0.33700       -0.91540
O         -1.41530       -1.72370       -0.67130
C         -1.28420        0.50500        0.36880
C         -2.60330        0.31290        1.09030
O         -0.28610        0.02530        1.32220
O          2.64780       -0.11380       -0.88520
O          1.33640        1.53070        0.66590
H         -1.06320        1.57730        0.16430
H          1.64440       -0.24440        1.75350
H          1.49040       -1.63850       -0.33480
H          0.45550        0.75890       -1.99800
H         -1.92310       -0.06880       -1.67620
H          1.22430        2.05820        1.48400
H          2.67200        0.87210       -0.98960
H         -2.96770       -0.72270        1.01550
H         -3.38420        0.96770        0.68730
H         -2.49530        0.53480        2.16270
H         -1.04420       -1.98610        0.20740
H         -0.02930       -2.01980       -2.34770
