20
beta-L-lyxopyranose.out
C          1.37450        0.49010        0.53870
O          0.36760        1.31790        1.13920
C         -0.99700        0.86460        1.15010
C         -1.43340        0.27540       -0.19970
C         -0.45700       -0.85180       -0.60850
O         -0.83830       -1.36580       -1.88680
C          0.94840       -0.24120       -0.76810
O          0.86770        0.70850       -1.83180
O         -2.72170       -0.29490        0.07100
O          2.35430        1.44840        0.15340
H         -1.11690        0.13270        1.96990
H         -1.54950        1.79160        1.39930
H          1.82540       -0.15880        1.31300
H          1.69830       -1.01450       -1.05150
H         -0.45490       -1.67420        0.14040
H         -1.50210        1.03760       -1.00830
H          1.99160        2.36450        0.29540
H          1.70370        1.24910       -1.84190
H         -1.38310       -2.17230       -1.77130
H         -3.21250       -0.41360       -0.77080
