20
beta-D-lyxopyranose.out
C          1.37510        0.49040       -0.53810
O          0.36820        1.31550       -1.14140
C         -0.99680        0.86290       -1.15010
C         -1.43310        0.27480        0.20030
O         -2.72180       -0.29510       -0.06860
C         -0.45610       -0.85230        0.60770
C          0.94830       -0.24050        0.76900
O          0.86790        0.71110        1.83100
O         -0.83500       -1.37130        1.88470
O          2.35290        1.45030       -0.15220
H         -1.11650        0.13020       -1.96920
H         -1.54820        1.79030       -1.39980
H          1.82820       -0.15870       -1.31110
H          1.69780       -1.01370        1.05360
H         -0.45230       -1.67300       -0.14310
H         -1.49850        1.03720        1.00870
H          1.98830        2.36570       -0.29140
H          1.70650        1.24690        1.84260
H         -1.40360       -2.16100        1.76590
H         -3.21870       -0.40040        0.77130
