24
beta-D-mannopyranose.out
C         -0.00690        1.38570       -0.68400
O         -0.75740        0.50160        0.18580
C         -0.38580       -0.88870        0.18110
C          1.09020       -1.00880        0.61820
O          1.54690       -2.36020        0.46080
C          1.99020       -0.21840       -0.35620
C          1.52930        1.24620       -0.48900
O          1.80590        1.97030        0.71410
O          3.31360       -0.09900        0.18640
C         -1.37760       -1.50310        1.18450
O         -2.64100       -1.70100        0.55020
O         -0.44450        2.64980       -0.29090
H         -0.54170       -1.31070       -0.83750
H          1.24350       -0.67230        1.66700
H          2.05630       -0.73970       -1.33860
H          2.07320        1.75700       -1.31860
H         -0.34590        1.24840       -1.72960
H         -0.15430        2.84390        0.64730
H          2.71190        1.72740        1.04430
H          3.65880       -0.99610        0.41320
H          1.16780       -2.94070        1.15230
H         -1.50230       -0.84960        2.06960
H         -1.08670       -2.52390        1.49230
H         -3.01150       -0.82790        0.27440
