20
beta-L-ribopyranose.out
C          1.33410        0.82800       -0.19650
O          0.31130        1.27280       -1.10590
C         -0.99030        1.44110       -0.51200
C         -1.49510        0.08220        0.01270
C         -0.48320       -0.51950        1.01750
C          0.94460       -0.53730        0.43480
O          1.76710       -0.76910        1.58750
O         -0.54790        0.35490        2.15400
O         -2.75740        0.25330        0.64020
O          2.45700        0.65660       -1.03540
H         -0.93990        2.19790        0.29110
H         -1.59570        1.82100       -1.35490
H          1.59680        1.60660        0.54600
H          1.08710       -1.36630       -0.29160
H         -0.79080       -1.53500        1.35510
H         -1.70780       -0.62660       -0.82050
H          2.17420        0.53710       -1.97620
H          2.71770       -0.77810        1.32580
H          0.21030        0.16110        2.76320
H         -2.64410        0.68590        1.52740
