24
beta-D-fructopyranose.out
C          1.80530       -1.46180       -0.45010
C          1.32580       -0.03090       -0.76320
O          0.28950       -0.11760       -1.77420
C         -1.03100       -0.45440       -1.31440
C         -1.48160        0.52780       -0.22160
O         -2.70720        0.00230        0.31340
C         -0.49110        0.53000        0.96480
O         -0.42740       -0.76560        1.57660
C          0.94800        0.80880        0.48310
O          0.97610        2.21090        0.21420
O          2.31370        0.73510       -1.42350
O          1.95750       -2.19550       -1.66410
H         -1.04390       -1.49510       -0.94110
H         -1.63160       -0.37250       -2.23810
H          1.67790        0.62390        1.30940
H         -0.79450        1.27380        1.73720
H         -1.61350        1.55680       -0.61770
H          1.09350       -1.98070        0.22520
H          2.81940       -1.47280       -0.00580
H          2.51330        0.34470       -2.31410
H          1.47160        2.39590       -0.62870
H         -1.34750       -1.08470        1.75810
H         -3.46800        0.56000        0.05970
H          1.13550       -2.11070       -2.20870
