24
beta-D-tagatopyranose.out
C          1.80380       -1.52450       -0.50650
C          1.30780       -0.07800       -0.71580
O          0.30640       -0.11240       -1.75960
C         -1.04690       -0.41500       -1.38030
C         -1.52420        0.52600       -0.26710
O         -2.81320        0.01050        0.08860
C         -0.58460        0.45280        0.96000
C          0.89520        0.67730        0.56850
O          1.05630        2.08990        0.43020
O         -0.98400        1.44630        1.89440
O          2.30340        0.73500       -1.30080
O          2.00540       -2.13390       -1.77920
H         -1.12680       -1.47550       -1.08360
H         -1.59740       -0.25280       -2.32840
H          1.57030        0.41550        1.42080
H         -0.73010       -0.50340        1.51520
H         -1.64050        1.57470       -0.61940
H          1.09420       -2.12540        0.08840
H          2.80960       -1.55310       -0.04070
H          2.56560        0.36800       -2.18900
H          1.27070        2.33370       -0.51070
H         -0.57950        2.32830        1.65550
H         -3.14000        0.47490        0.89780
H          1.18930       -2.02550       -2.33490
