24
beta-D-talopyranose.out
C          0.02080        0.89940       -1.18270
O         -0.75280       -0.05070       -0.41330
C         -0.45750       -1.44440       -0.64240
C          1.02490       -1.73950       -0.34150
C          1.96400       -0.79640       -1.13480
C          1.54200        0.68220       -0.97100
O          1.76670        1.08590        0.39300
O          3.28790       -0.91640       -0.62010
O          1.33390       -1.56940        1.04220
C         -1.40970       -2.16170        0.33210
O         -2.62040       -2.50200       -0.34280
O         -0.38350        2.13290       -0.66930
H         -0.70950       -1.69270       -1.69860
H          1.27640       -2.81040       -0.52660
H          2.05330       -1.07880       -2.20620
H          2.13540        1.34640       -1.63750
H         -0.30000        0.88380       -2.24290
H         -0.14320        2.20320        0.29690
H          2.74040        1.13180        0.55420
H          3.24840       -1.18220        0.34540
H          1.06470       -0.64260        1.32670
H         -1.62180       -1.52550        1.21280
H         -1.00980       -3.13890        0.66400
H         -3.14750       -1.69030       -0.51840
