6
Methanol
H          0.84754        0.03474        1.03453
C          0.35048        0.00675        0.06084
H          0.63507        0.89276       -0.52006
H          0.66294       -0.89338       -0.48283
O         -1.01083       -0.00823        0.36439
H         -1.48520       -0.03263       -0.45685
