12
Propan-1-ol
H          1.89588        0.03792        1.56380
C          1.43554       -0.00859        0.56875
H          1.83505        0.83033       -0.01669
H          1.78231       -0.93433        0.09033
C         -0.07228        0.04195        0.66168
H         -0.44451       -0.79314        1.28764
H         -0.39222        0.96639        1.18210
C         -0.70141       -0.02289       -0.72834
H         -0.35557        0.82257       -1.35598
H         -0.40925       -0.95695       -1.24842
O         -2.10060        0.02896       -0.56743
H         -2.47294       -0.01223       -1.43743
