74
cholesterol.out
C         30.26810      -52.05250       -0.16660
C         30.02050      -50.56620       -0.43650
C         31.33670      -49.87050       -0.78170
C         31.29990      -52.26440        0.95090
C         32.57590      -51.51040        0.68380
C         33.75920      -52.11690        0.84930
C         35.08390      -51.44870        0.66220
C         34.97270      -49.91240        0.61880
C         36.25800      -49.28850        0.06190
C         37.58450      -49.56940        0.78490
C         38.50870      -48.40670        0.35410
C         37.63720      -47.36910       -0.41360
C         38.08460      -45.90810       -0.17600
C         39.58400      -45.73370       -0.51380
C         40.11510      -44.35310       -0.10300
C         41.64280      -44.27950       -0.21900
C         42.18610      -42.86760        0.08840
C         42.01950      -42.51060        1.57140
C         43.66380      -42.77400       -0.31800
C         37.24130      -44.94030       -1.01770
C         36.17720      -47.72640        0.02670
C         35.85310      -47.11470        1.39830
C         35.07310      -47.37130       -0.98730
C         33.72920      -47.98630       -0.56430
C         33.78300      -49.50620       -0.29410
C         32.43490      -50.03730        0.30520
C         32.04900      -49.26750        1.58230
O         28.97940      -52.54770        0.26150
H         30.55630      -52.60050       -1.08940
H         29.28640      -50.45110       -1.25660
H         29.54190      -50.10370        0.45010
H         31.71700      -50.26480       -1.74470
H         31.14480      -48.79330       -0.94840
H         30.86920      -51.91670        1.91580
H         31.49300      -53.34470        1.09040
H         33.82460      -53.16710        1.13100
H         35.77520      -51.74510        1.47660
H         35.54610      -51.82880       -0.27360
H         34.78630      -49.53780        1.65300
H         36.37330      -49.64900       -0.99310
H         37.45070      -49.58500        1.87900
H         38.00200      -50.54840        0.50710
H         38.98590      -47.94950        1.23660
H         39.32470      -48.77070       -0.28970
H         37.72730      -47.57610       -1.50580
H         37.94360      -45.65750        0.90360
H         40.17760      -46.51590       -0.00360
H         39.74560      -45.89370       -1.59560
H         39.65260      -43.56980       -0.73430
H         39.80710      -44.12350        0.93580
H         42.11000      -45.01680        0.46040
H         41.95150      -44.57740       -1.23970
H         41.60960      -42.12610       -0.51950
H         40.96470      -42.51190        1.86650
H         42.54070      -43.22370        2.21920
H         42.42240      -41.51590        1.78870
H         43.80430      -42.99970       -1.38010
H         44.05850      -41.76780       -0.14170
H         44.28430      -43.47280        0.25330
H         36.16760      -45.05720       -0.81320
H         37.50420      -43.89830       -0.80720
H         37.38930      -45.10550       -2.09010
H         34.91860      -47.51720        1.80670
H         36.64210      -47.32590        2.12760
H         35.74110      -46.02800        1.33360
H         34.97200      -46.26990       -1.07130
H         35.35310      -47.72420       -1.99640
H         33.36210      -47.46060        0.34130
H         32.97940      -47.78430       -1.35300
H         33.93410      -50.01690       -1.27800
H         31.08520      -49.60670        1.97720
H         32.79890      -49.41070        2.36900
H         31.96690      -48.19110        1.39460
H         29.01650      -53.49950        0.45430
