56
Octadecanoic acid
C         10.69779       -0.12415       -0.00479
C          9.42717        0.69461       -0.03950
C          8.19248       -0.19156        0.00032
C          6.91604        0.63304       -0.03477
C          5.68317       -0.25523        0.00569
C          4.40625        0.56879       -0.02938
C          3.17386       -0.32022        0.01110
C          1.89669        0.50337       -0.02399
C          0.66435       -0.38571        0.01647
C         -0.61242        0.43850       -0.01866
C         -1.84542       -0.44965        0.02175
C         -3.12137        0.37589       -0.01345
C         -4.35531       -0.51091        0.02688
C         -5.62985        0.31683       -0.00846
C         -6.86509       -0.56818        0.03171
C         -8.13630        0.26571       -0.00381
C         -9.36881       -0.62070        0.03613
C        -10.65816        0.16871        0.00362
O        -11.85545       -0.46808        0.03349
O        -10.82260        1.36833       -0.04880
H         11.58697        0.51848       -0.03167
H         10.76181       -0.80898       -0.86085
H         10.76156       -0.73487        0.90566
H          9.40851        1.32569       -0.95035
H          9.40998        1.40310        0.81258
H          8.21082       -0.82341        0.91119
H          8.20939       -0.90034       -0.85207
H          6.89813        1.26409       -0.94625
H          6.89991        1.34228        0.81734
H          5.70129       -0.88668        0.91688
H          5.69949       -0.96416       -0.84664
H          4.38786        1.19982       -0.94088
H          4.38964        1.27801        0.82275
H          3.19224       -0.95169        0.92231
H          3.19047       -1.02918       -0.84123
H          1.87828        1.13442       -0.93551
H          1.88001        1.21263        0.82815
H          0.68267       -1.01714        0.92767
H          0.68093       -1.09462       -0.83588
H         -0.63040        1.06953       -0.93020
H         -0.62869        1.14775        0.83348
H         -1.82761       -1.08111        0.93296
H         -1.82934       -1.15860       -0.83059
H         -3.13861        1.00690       -0.92501
H         -3.13691        1.08512        0.83872
H         -4.33834       -1.14226        0.93813
H         -4.34003       -1.21977       -0.82547
H         -5.64647        0.94791       -0.92004
H         -5.64486        1.02608        0.84377
H         -6.84884       -1.19950        0.94317
H         -6.85054       -1.27687       -0.82099
H         -8.15278        0.89726       -0.91481
H         -8.15127        0.97498        0.84813
H         -9.35695       -1.24984        0.94992
H         -9.35927       -1.32606       -0.82021
H        -11.73604       -1.40837        0.07431
