24
(2S,3R,4R,5R)-2,3,4,5,6-Pentahydroxyhexanal
C          2.84402       -0.60732        0.24448
C          1.62167        0.31732        0.04074
C          0.28514       -0.45956        0.22298
C         -0.94219        0.49621        0.05922
C         -2.27601       -0.27910        0.26373
C         -3.43362        0.71537        0.36265
O          4.05251        0.09375        0.31802
O          1.65329        0.94393       -1.22892
O          0.31628       -1.01184        1.52251
O         -0.99628        1.08525       -1.21894
O         -2.46725       -1.29786       -0.68029
O         -4.37948        0.71102       -0.38621
H          2.89097       -1.38080       -0.54936
H          2.79934       -1.12341        1.21929
H          1.66622        1.19188        0.73134
H          0.22453       -1.28557       -0.52974
H         -0.88062        1.30797        0.82760
H         -2.21832       -0.85844        1.22073
H         -3.36030        1.45669        1.17488
H          4.13089        0.62264       -0.46676
H          1.78059        0.26409       -1.88259
H         -0.53444       -1.41826        1.65679
H         -0.11149        1.40084       -1.40955
H         -2.66543       -0.88480       -1.51263
