24
(2R,3R,4R,5R)-2,3,4,5,6-Pentahydroxyhexanal
C          2.79987       -0.74726       -0.08057
C          1.61131        0.24348       -0.13724
C          0.25391       -0.50454        0.01678
C         -0.96284        0.47401       -0.09876
C         -2.31178       -0.28676        0.10286
C         -3.48415        0.67055       -0.11872
O          1.57238        0.91229       -1.38725
O          0.30296       -1.11485        1.28902
O         -1.05506        1.07434       -1.37067
O         -2.33915       -0.94427        1.35029
O         -4.14790        1.10584        0.79326
H          2.85964       -1.36432       -0.99512
H          1.70883        1.01318        0.66953
H          0.17071       -1.29788       -0.76716
H         -0.86737        1.27771        0.67334
H         -2.39205       -1.13767       -0.61352
H         -3.69409        0.95534       -1.16118
H          2.43990        1.26231       -1.54290
H         -0.58518       -1.41554        1.48475
H         -0.16739        1.30805       -1.63695
H         -2.57581       -0.30587        2.01501
O          4.03061       -0.07394       -0.06397
H          2.70850       -1.42803        0.78644
H          4.12417        0.32385        0.79273
