24
(2R,3S,4S,5R)-2,3,4,5,6-Pentahydroxyhexanal
C          2.69120       -0.91635        0.17590
C          1.60180        0.14907       -0.09595
C          0.18571       -0.49456       -0.02909
C         -0.93885        0.58362       -0.06706
C         -2.33970       -0.06283        0.13462
C         -3.42188        0.98431       -0.13249
O          3.93787       -0.35617        0.47185
O          1.84865        0.83491       -1.29866
O         -2.46480       -0.72347        1.36496
O         -4.25042        1.31065        0.68228
O         -0.01923       -1.33593       -1.14776
O         -0.78530        1.54287        0.95848
H          2.77844       -1.62190       -0.67500
H          2.45773       -1.50215        1.08217
H          1.67277        0.97667        0.65462
H          0.10398       -1.07851        0.92075
H         -0.92206        1.10617       -1.05648
H         -2.47115       -0.89668       -0.59494
H         -3.41244        1.43750       -1.13709
H          4.17234        0.21802       -0.24751
H          1.66161        0.24023       -2.01566
H         -2.53146       -0.06094        2.04272
H          0.32985       -2.18295       -0.90702
H          0.11534        1.84841        0.91635
