20
(2S,3S,4R)-2,3,4,5-Tetrahydroxypentanal
C          2.05283       -0.73099        0.53085
C          1.01782        0.26276       -0.05455
C         -0.42729       -0.27329        0.15262
C         -1.48219        0.81922       -0.19570
C         -2.87744        0.19275       -0.28326
O          3.31171       -0.15501        0.72842
O         -1.40728        1.89307        0.70540
O         -3.66061        0.21653        0.63697
H          2.14856       -1.63450       -0.10530
H          1.76487       -1.05855        1.54502
O          1.31640        0.56612       -1.39427
O         -0.69307       -1.38373       -0.68188
H         -1.23231        1.31016       -1.16528
H         -3.13948       -0.29378       -1.23514
H          3.57051        0.25625       -0.08782
H         -1.78410        1.61133        1.53110
H          1.11606        1.26047        0.43560
H         -0.54688       -0.57176        1.22451
H          1.10003       -0.19434       -1.92107
H         -0.14813       -2.09273       -0.36620
