20
(2R,3R,4R)-2,3,4,5-Tetrahydroxypentanal
C          2.12879       -0.90756        0.13014
C          1.04379        0.19219        0.02850
C         -0.38462       -0.42792        0.12355
C         -1.47897        0.68530        0.03852
C         -2.86669        0.05643        0.17684
O          3.39859       -0.37942        0.39115
O          1.25237        0.83675       -1.20817
O         -0.56126       -1.18806        1.29252
O         -1.31527        1.46713       -1.12235
O         -3.64290       -0.01678       -0.74558
H          2.14083       -1.53710       -0.78124
H          1.95062       -1.56674        0.99794
H          1.17811        0.94006        0.85121
H         -0.53650       -1.18246       -0.68224
H         -1.33659        1.43697        0.85037
H         -3.12617       -0.33946        1.17078
H          3.63295        0.17341       -0.34425
H          0.50156        1.41543       -1.34514
H         -0.24720       -0.66975        2.02415
H         -1.73144        1.01158       -1.84668
