16
(2S,3R)-2,3,4-Trihydroxybutanal
C          0.34947       -0.25215       -0.18585
C         -0.49279        1.02790        0.05982
O         -0.29571       -0.99283       -1.20284
C          0.50751       -1.05426        1.12816
O         -1.81089        0.76810        0.46842
C         -0.47113        1.91888       -1.18953
O          1.35352       -2.16003        0.97150
O          0.49833        2.57325       -1.49102
H          1.35500        0.05346       -0.56961
H         -0.08391        1.58080        0.93786
H          0.03828       -1.87940       -1.15654
H         -0.44625       -1.50968        1.45024
H          0.86225       -0.39091        1.94007
H         -2.21133        0.20128       -0.18010
H         -1.38444        1.94673       -1.80606
H          2.23210       -1.83114        0.82547
