12
1,3-Dihydroxypropan-2-one
C          1.23641       -0.52020       -0.00372
C          0.03963        0.41568        0.10083
C         -1.30831       -0.23500       -0.17961
O          2.45013        0.10616       -0.29649
O          0.15171        1.59212        0.38635
O         -2.40231        0.39449        0.41876
H          1.11005       -1.23157       -0.83940
H          1.31187       -1.10628        0.93412
H         -1.34692       -1.25856        0.23429
H         -1.44675       -0.30571       -1.27718
H          2.56342        0.82825        0.31039
H         -2.35893        1.32062        0.21165
