8
1,2-Oxazole
C          0.78274        0.78577        0.03119
C          0.52415       -0.55326       -0.10770
C         -0.91230       -0.67626       -0.00783
H          1.69681        1.37476        0.02844
H          1.22822       -1.36598       -0.26068
H         -1.51625       -1.58097       -0.06743
O         -0.37465        1.48669        0.20700
N         -1.42873        0.52925        0.17700
