8
1,2-Thiazole
C          0.84261        0.76185       -0.31303
C          0.42498       -0.53836       -0.26194
H          1.79238        1.09944       -0.72525
H          0.98543       -1.39988       -0.62491
S         -0.33645        1.81296        0.36421
N         -1.40120        0.50016        0.72022
C         -0.87905       -0.65236        0.34277
H         -1.42871       -1.58381        0.49792
