8
1,3-Thiazole
C          0.90725        0.61820       -0.32596
C          0.61315       -0.71667       -0.37840
H          1.82874        1.07648       -0.68114
H          1.23569       -1.52190       -0.77383
S         -0.37605        1.53201        0.38463
C         -1.28037        0.04961        0.58880
N         -0.65322       -1.03153        0.15304
H         -2.27519       -0.00620        1.03286
