15
Benzofuran
C          2.10452        0.13866        0.01633
C          1.65041       -1.18785       -0.00267
C          0.29720       -1.49614       -0.01611
C         -0.60994       -0.43992       -0.00986
C          1.22340        1.21171        0.02270
C         -0.13239        0.89368        0.00949
C         -2.05617       -0.33806       -0.01831
C         -2.34401        0.99738       -0.00412
H          3.18258        0.33096        0.02637
H          2.38635       -1.99886       -0.00680
H         -0.05247       -2.53241       -0.03110
H          1.57228        2.24796        0.03741
H         -2.74997       -1.17353       -0.03291
H         -3.27189        1.56249       -0.00331
O         -1.19992        1.78396        0.01290
