17
1H-Indene
C          2.29039       -0.19042       -0.00309
C          1.80407       -1.49451       -0.02047
C          0.43261       -1.75090       -0.02354
C         -0.43335       -0.66959       -0.00879
C          1.42148        0.90258        0.01181
C          0.06126        0.65526        0.00883
C         -1.89607       -0.61375       -0.00764
C         -1.10000        1.60479        0.02168
C         -2.28791        0.67829        0.00976
H          3.37153       -0.01723       -0.00105
H          2.50795       -2.33316       -0.03192
H          0.04998       -2.77573       -0.03720
H          1.80760        1.92610        0.02544
H         -2.52699       -1.50080       -0.01936
H         -1.09722        2.27311       -0.85864
H         -1.09674        2.25007        0.91905
H         -3.30859        1.05590        0.01512
