16
Anisole
C          0.76566        1.33762       -0.03524
C          2.06066        0.84091       -0.02455
C          2.29044       -0.53277        0.00661
C          1.21844       -1.41543        0.02678
C         -0.08979       -0.94145        0.01668
C         -0.31310        0.43838       -0.01403
H          0.58607        2.41841       -0.05994
H          2.90760        1.53476       -0.04045
H          3.31587       -0.91529        0.01523
H          1.39973       -2.49503        0.05097
H         -0.92108       -1.65493        0.03276
O         -1.55193        1.04912       -0.02791
C         -2.68488        0.21769        0.00723
H         -2.74834       -0.43737       -0.86942
H         -3.50468        0.94098       -0.00604
H         -2.73066       -0.38561        0.92131
