14
Benzoyl chloride
C          0.35675        1.20424       -0.00000
C          1.63137        0.65021        0.00000
C          1.79292       -0.73139       -0.00000
C          0.67592       -1.56085        0.00000
C         -0.60154       -1.01394       -0.00000
C         -0.76885        0.37322        0.00001
H          0.23508        2.29473        0.00000
H          2.50949        1.30500       -0.00000
H          2.79831       -1.16608        0.00000
H          0.80141       -2.64893       -0.00000
H         -1.47720       -1.67624        0.00000
C         -2.11390        0.98361        0.00001
Cl        -3.46877       -0.17434       -0.00000
O         -2.37097        2.16076       -0.00001
