18
Naphthalene
C          2.40436        0.75591        0.00000
C          2.43283       -0.65838        0.00000
C          1.26723       -1.37532        0.00000
C          0.01416       -0.70495        0.00000
C         -0.01421        0.70477        0.00000
C          1.21076        1.42524        0.00000
C         -1.26717        1.37536        0.00000
C         -2.43278        0.65850        0.00000
C         -2.40427       -0.75577        0.00000
C         -1.21083       -1.42535        0.00000
H          3.35089        1.30625        0.00000
H          3.40064       -1.17032        0.00000
H          1.28096       -2.47101        0.00000
H          1.18031        2.52058        0.00000
H         -1.28083        2.47104        0.00000
H         -3.40075        1.17011        0.00000
H         -3.35081       -1.30597        0.00000
H         -1.18049       -2.52069        0.00000
